
---------- Begin Simulation Statistics ----------
simSeconds                                   0.000004                       # Number of seconds simulated (Second)
simTicks                                      3596000                       # Number of ticks simulated (Tick)
finalTick                                  6371186000                       # Number of ticks from beginning of simulation (restored from checkpoints and never reset) (Tick)
simFreq                                  1000000000000                       # The number of ticks per simulated second ((Tick/Second))
hostSeconds                                      0.17                       # Real time elapsed on the host (Second)
hostTickRate                                 20595472                       # The number of ticks simulated per host second (ticks/s) ((Tick/Second))
hostMemory                                     760100                       # Number of bytes of host memory used (Byte)
simInsts                                         1018                       # Number of instructions simulated (Count)
simOps                                           1018                       # Number of ops (including micro ops) simulated (Count)
hostInstRate                                     5827                       # Simulator instruction rate (inst/s) ((Count/Second))
hostOpRate                                       5827                       # Simulator op (including micro ops) rate (op/s) ((Count/Second))
system.clk_domain.clock                          1000                       # Clock period in ticks (Tick)
system.cpu0.numCycles                              20                       # Number of cpu cycles simulated (Cycle)
system.cpu0.cpi                              1.111111                       # CPI: cycles per instruction (core level) ((Cycle/Count))
system.cpu0.ipc                              0.900000                       # IPC: instructions per cycle (core level) ((Count/Cycle))
system.cpu0.numWorkItemsStarted                     0                       # Number of work items this cpu started (Count)
system.cpu0.numWorkItemsCompleted                   0                       # Number of work items this cpu completed (Count)
system.cpu0.commitStats0.numInsts                  18                       # Number of instructions committed (thread level) (Count)
system.cpu0.commitStats0.numOps                    18                       # Number of ops (including micro ops) committed (thread level) (Count)
system.cpu0.commitStats0.numInstsNotNOP             0                       # Number of instructions committed excluding NOPs or prefetches (Count)
system.cpu0.commitStats0.numOpsNotNOP               0                       # Number of Ops (including micro ops) Simulated (Count)
system.cpu0.commitStats0.cpi                 1.111111                       # CPI: cycles per instruction (thread level) ((Cycle/Count))
system.cpu0.commitStats0.ipc                 0.900000                       # IPC: instructions per cycle (thread level) ((Count/Cycle))
system.cpu0.commitStats0.numMemRefs                 0                       # Number of memory references committed (Count)
system.cpu0.commitStats0.numFpInsts                 0                       # Number of float instructions (Count)
system.cpu0.commitStats0.numIntInsts               17                       # Number of integer instructions (Count)
system.cpu0.commitStats0.numLoadInsts               4                       # Number of load instructions (Count)
system.cpu0.commitStats0.numStoreInsts              1                       # Number of store instructions (Count)
system.cpu0.commitStats0.numVecInsts                0                       # Number of vector instructions (Count)
system.cpu0.commitStats0.committedInstType::No_OpClass            0      0.00%      0.00% # Class of committed instruction. (Count)
system.cpu0.commitStats0.committedInstType::IntAlu           13     72.22%     72.22% # Class of committed instruction. (Count)
system.cpu0.commitStats0.committedInstType::IntMult            0      0.00%     72.22% # Class of committed instruction. (Count)
system.cpu0.commitStats0.committedInstType::IntDiv            0      0.00%     72.22% # Class of committed instruction. (Count)
system.cpu0.commitStats0.committedInstType::FloatAdd            0      0.00%     72.22% # Class of committed instruction. (Count)
system.cpu0.commitStats0.committedInstType::FloatCmp            0      0.00%     72.22% # Class of committed instruction. (Count)
system.cpu0.commitStats0.committedInstType::FloatCvt            0      0.00%     72.22% # Class of committed instruction. (Count)
system.cpu0.commitStats0.committedInstType::FloatMult            0      0.00%     72.22% # Class of committed instruction. (Count)
system.cpu0.commitStats0.committedInstType::FloatMultAcc            0      0.00%     72.22% # Class of committed instruction. (Count)
system.cpu0.commitStats0.committedInstType::FloatDiv            0      0.00%     72.22% # Class of committed instruction. (Count)
system.cpu0.commitStats0.committedInstType::FloatMisc            0      0.00%     72.22% # Class of committed instruction. (Count)
system.cpu0.commitStats0.committedInstType::FloatSqrt            0      0.00%     72.22% # Class of committed instruction. (Count)
system.cpu0.commitStats0.committedInstType::SimdAdd            0      0.00%     72.22% # Class of committed instruction. (Count)
system.cpu0.commitStats0.committedInstType::SimdAddAcc            0      0.00%     72.22% # Class of committed instruction. (Count)
system.cpu0.commitStats0.committedInstType::SimdAlu            0      0.00%     72.22% # Class of committed instruction. (Count)
system.cpu0.commitStats0.committedInstType::SimdCmp            0      0.00%     72.22% # Class of committed instruction. (Count)
system.cpu0.commitStats0.committedInstType::SimdCvt            0      0.00%     72.22% # Class of committed instruction. (Count)
system.cpu0.commitStats0.committedInstType::SimdMisc            0      0.00%     72.22% # Class of committed instruction. (Count)
system.cpu0.commitStats0.committedInstType::SimdMult            0      0.00%     72.22% # Class of committed instruction. (Count)
system.cpu0.commitStats0.committedInstType::SimdMultAcc            0      0.00%     72.22% # Class of committed instruction. (Count)
system.cpu0.commitStats0.committedInstType::SimdMatMultAcc            0      0.00%     72.22% # Class of committed instruction. (Count)
system.cpu0.commitStats0.committedInstType::SimdShift            0      0.00%     72.22% # Class of committed instruction. (Count)
system.cpu0.commitStats0.committedInstType::SimdShiftAcc            0      0.00%     72.22% # Class of committed instruction. (Count)
system.cpu0.commitStats0.committedInstType::SimdDiv            0      0.00%     72.22% # Class of committed instruction. (Count)
system.cpu0.commitStats0.committedInstType::SimdSqrt            0      0.00%     72.22% # Class of committed instruction. (Count)
system.cpu0.commitStats0.committedInstType::SimdFloatAdd            0      0.00%     72.22% # Class of committed instruction. (Count)
system.cpu0.commitStats0.committedInstType::SimdFloatAlu            0      0.00%     72.22% # Class of committed instruction. (Count)
system.cpu0.commitStats0.committedInstType::SimdFloatCmp            0      0.00%     72.22% # Class of committed instruction. (Count)
system.cpu0.commitStats0.committedInstType::SimdFloatCvt            0      0.00%     72.22% # Class of committed instruction. (Count)
system.cpu0.commitStats0.committedInstType::SimdFloatDiv            0      0.00%     72.22% # Class of committed instruction. (Count)
system.cpu0.commitStats0.committedInstType::SimdFloatMisc            0      0.00%     72.22% # Class of committed instruction. (Count)
system.cpu0.commitStats0.committedInstType::SimdFloatMult            0      0.00%     72.22% # Class of committed instruction. (Count)
system.cpu0.commitStats0.committedInstType::SimdFloatMultAcc            0      0.00%     72.22% # Class of committed instruction. (Count)
system.cpu0.commitStats0.committedInstType::SimdFloatMatMultAcc            0      0.00%     72.22% # Class of committed instruction. (Count)
system.cpu0.commitStats0.committedInstType::SimdFloatSqrt            0      0.00%     72.22% # Class of committed instruction. (Count)
system.cpu0.commitStats0.committedInstType::SimdReduceAdd            0      0.00%     72.22% # Class of committed instruction. (Count)
system.cpu0.commitStats0.committedInstType::SimdReduceAlu            0      0.00%     72.22% # Class of committed instruction. (Count)
system.cpu0.commitStats0.committedInstType::SimdReduceCmp            0      0.00%     72.22% # Class of committed instruction. (Count)
system.cpu0.commitStats0.committedInstType::SimdFloatReduceAdd            0      0.00%     72.22% # Class of committed instruction. (Count)
system.cpu0.commitStats0.committedInstType::SimdFloatReduceCmp            0      0.00%     72.22% # Class of committed instruction. (Count)
system.cpu0.commitStats0.committedInstType::SimdAes            0      0.00%     72.22% # Class of committed instruction. (Count)
system.cpu0.commitStats0.committedInstType::SimdAesMix            0      0.00%     72.22% # Class of committed instruction. (Count)
system.cpu0.commitStats0.committedInstType::SimdSha1Hash            0      0.00%     72.22% # Class of committed instruction. (Count)
system.cpu0.commitStats0.committedInstType::SimdSha1Hash2            0      0.00%     72.22% # Class of committed instruction. (Count)
system.cpu0.commitStats0.committedInstType::SimdSha256Hash            0      0.00%     72.22% # Class of committed instruction. (Count)
system.cpu0.commitStats0.committedInstType::SimdSha256Hash2            0      0.00%     72.22% # Class of committed instruction. (Count)
system.cpu0.commitStats0.committedInstType::SimdShaSigma2            0      0.00%     72.22% # Class of committed instruction. (Count)
system.cpu0.commitStats0.committedInstType::SimdShaSigma3            0      0.00%     72.22% # Class of committed instruction. (Count)
system.cpu0.commitStats0.committedInstType::SimdPredAlu            0      0.00%     72.22% # Class of committed instruction. (Count)
system.cpu0.commitStats0.committedInstType::Matrix            0      0.00%     72.22% # Class of committed instruction. (Count)
system.cpu0.commitStats0.committedInstType::MatrixMov            0      0.00%     72.22% # Class of committed instruction. (Count)
system.cpu0.commitStats0.committedInstType::MatrixOP            0      0.00%     72.22% # Class of committed instruction. (Count)
system.cpu0.commitStats0.committedInstType::MemRead            4     22.22%     94.44% # Class of committed instruction. (Count)
system.cpu0.commitStats0.committedInstType::MemWrite            1      5.56%    100.00% # Class of committed instruction. (Count)
system.cpu0.commitStats0.committedInstType::FloatMemRead            0      0.00%    100.00% # Class of committed instruction. (Count)
system.cpu0.commitStats0.committedInstType::FloatMemWrite            0      0.00%    100.00% # Class of committed instruction. (Count)
system.cpu0.commitStats0.committedInstType::IprAccess            0      0.00%    100.00% # Class of committed instruction. (Count)
system.cpu0.commitStats0.committedInstType::InstPrefetch            0      0.00%    100.00% # Class of committed instruction. (Count)
system.cpu0.commitStats0.committedInstType::VectorUnitStrideLoad            0      0.00%    100.00% # Class of committed instruction. (Count)
system.cpu0.commitStats0.committedInstType::VectorUnitStrideStore            0      0.00%    100.00% # Class of committed instruction. (Count)
system.cpu0.commitStats0.committedInstType::VectorUnitStrideMaskLoad            0      0.00%    100.00% # Class of committed instruction. (Count)
system.cpu0.commitStats0.committedInstType::VectorUnitStrideMaskStore            0      0.00%    100.00% # Class of committed instruction. (Count)
system.cpu0.commitStats0.committedInstType::VectorStridedLoad            0      0.00%    100.00% # Class of committed instruction. (Count)
system.cpu0.commitStats0.committedInstType::VectorStridedStore            0      0.00%    100.00% # Class of committed instruction. (Count)
system.cpu0.commitStats0.committedInstType::VectorIndexedLoad            0      0.00%    100.00% # Class of committed instruction. (Count)
system.cpu0.commitStats0.committedInstType::VectorIndexedStore            0      0.00%    100.00% # Class of committed instruction. (Count)
system.cpu0.commitStats0.committedInstType::VectorUnitStrideFaultOnlyFirstLoad            0      0.00%    100.00% # Class of committed instruction. (Count)
system.cpu0.commitStats0.committedInstType::VectorWholeRegisterLoad            0      0.00%    100.00% # Class of committed instruction. (Count)
system.cpu0.commitStats0.committedInstType::VectorWholeRegisterStore            0      0.00%    100.00% # Class of committed instruction. (Count)
system.cpu0.commitStats0.committedInstType::VectorIntegerArith            0      0.00%    100.00% # Class of committed instruction. (Count)
system.cpu0.commitStats0.committedInstType::VectorFloatArith            0      0.00%    100.00% # Class of committed instruction. (Count)
system.cpu0.commitStats0.committedInstType::VectorFloatConvert            0      0.00%    100.00% # Class of committed instruction. (Count)
system.cpu0.commitStats0.committedInstType::VectorIntegerReduce            0      0.00%    100.00% # Class of committed instruction. (Count)
system.cpu0.commitStats0.committedInstType::VectorFloatReduce            0      0.00%    100.00% # Class of committed instruction. (Count)
system.cpu0.commitStats0.committedInstType::VectorMisc            0      0.00%    100.00% # Class of committed instruction. (Count)
system.cpu0.commitStats0.committedInstType::VectorIntegerExtension            0      0.00%    100.00% # Class of committed instruction. (Count)
system.cpu0.commitStats0.committedInstType::VectorConfig            0      0.00%    100.00% # Class of committed instruction. (Count)
system.cpu0.commitStats0.committedInstType::total           18                       # Class of committed instruction. (Count)
system.cpu0.commitStats0.committedControl::IsControl            5                       # Class of control type instructions committed (Count)
system.cpu0.commitStats0.committedControl::IsDirectControl            4                       # Class of control type instructions committed (Count)
system.cpu0.commitStats0.committedControl::IsIndirectControl            1                       # Class of control type instructions committed (Count)
system.cpu0.commitStats0.committedControl::IsCondControl            2                       # Class of control type instructions committed (Count)
system.cpu0.commitStats0.committedControl::IsUncondControl            3                       # Class of control type instructions committed (Count)
system.cpu0.commitStats0.committedControl::IsCall            1                       # Class of control type instructions committed (Count)
system.cpu0.commitStats0.committedControl::IsReturn            1                       # Class of control type instructions committed (Count)
system.cpu0.exec_context.thread_0.numMatAluAccesses            0                       # Number of matrix alu accesses (Count)
system.cpu0.exec_context.thread_0.numCallsReturns            2                       # Number of times a function call or return occured (Count)
system.cpu0.exec_context.thread_0.numMatInsts            0                       # Number of matrix instructions (Count)
system.cpu0.exec_context.thread_0.numIdleCycles            0                       # Number of idle cycles (Cycle)
system.cpu0.exec_context.thread_0.numBusyCycles           20                       # Number of busy cycles (Cycle)
system.cpu0.exec_context.thread_0.notIdleFraction            1                       # Percentage of non-idle cycles (Ratio)
system.cpu0.exec_context.thread_0.idleFraction            0                       # Percentage of idle cycles (Ratio)
system.cpu0.executeStats0.numInsts                  0                       # Number of executed instructions (Count)
system.cpu0.executeStats0.numNop                    0                       # Number of nop insts executed (Count)
system.cpu0.executeStats0.numBranches               0                       # Number of branches executed (Count)
system.cpu0.executeStats0.numLoadInsts              0                       # Number of load instructions executed (Count)
system.cpu0.executeStats0.numStoreInsts             5                       # Number of stores executed (Count)
system.cpu0.executeStats0.instRate                  0                       # Inst execution rate ((Count/Cycle))
system.cpu0.executeStats0.numFpRegWrites            0                       # Number of times the floating registers were written (Count)
system.cpu0.executeStats0.numIntAluAccesses           17                       # Number of integer alu accesses (Count)
system.cpu0.executeStats0.numIntRegReads           18                       # Number of times the integer registers were read (Count)
system.cpu0.executeStats0.numIntRegWrites           13                       # Number of times the integer registers were written (Count)
system.cpu0.executeStats0.numMemRefs                5                       # Number of memory refs (Count)
system.cpu0.executeStats0.numVecAluAccesses            0                       # Number of vector alu accesses (Count)
system.cpu0.executeStats0.numDiscardedOps            0                       # Number of ops (including micro ops) which were discarded before commit (Count)
system.cpu0.fetchStats0.numInsts                   18                       # Number of instructions fetched (thread level) (Count)
system.cpu0.fetchStats0.numOps                     18                       # Number of ops (including micro ops) fetched (thread level) (Count)
system.cpu0.fetchStats0.fetchRate            0.900000                       # Number of inst fetches per cycle ((Count/Cycle))
system.cpu0.fetchStats0.numBranches                 5                       # Number of branches fetched (Count)
system.cpu0.fetchStats0.branchRate           0.250000                       # Number of branch fetches per cycle (Ratio)
system.cpu0.fetchStats0.numFetchSuspends            0                       # Number of times Execute suspended instruction fetching (Count)
system.cpu0.mmu.dtb.readHits                        0                       # read hits (Count)
system.cpu0.mmu.dtb.readMisses                      0                       # read misses (Count)
system.cpu0.mmu.dtb.readAccesses                    0                       # read accesses (Count)
system.cpu0.mmu.dtb.writeHits                       0                       # write hits (Count)
system.cpu0.mmu.dtb.writeMisses                     0                       # write misses (Count)
system.cpu0.mmu.dtb.writeAccesses                   0                       # write accesses (Count)
system.cpu0.mmu.dtb.hits                            0                       # Total TLB (read and write) hits (Count)
system.cpu0.mmu.dtb.misses                          0                       # Total TLB (read and write) misses (Count)
system.cpu0.mmu.dtb.accesses                        0                       # Total TLB (read and write) accesses (Count)
system.cpu0.mmu.dtb.walker.power_state.pwrStateResidencyTicks::UNDEFINED   6371186000                       # Cumulative time (in ticks) in various power states (Tick)
system.cpu0.mmu.itb.readHits                        0                       # read hits (Count)
system.cpu0.mmu.itb.readMisses                      0                       # read misses (Count)
system.cpu0.mmu.itb.readAccesses                    0                       # read accesses (Count)
system.cpu0.mmu.itb.writeHits                       0                       # write hits (Count)
system.cpu0.mmu.itb.writeMisses                     0                       # write misses (Count)
system.cpu0.mmu.itb.writeAccesses                   0                       # write accesses (Count)
system.cpu0.mmu.itb.hits                            0                       # Total TLB (read and write) hits (Count)
system.cpu0.mmu.itb.misses                          0                       # Total TLB (read and write) misses (Count)
system.cpu0.mmu.itb.accesses                        0                       # Total TLB (read and write) accesses (Count)
system.cpu0.mmu.itb.walker.power_state.pwrStateResidencyTicks::UNDEFINED   6371186000                       # Cumulative time (in ticks) in various power states (Tick)
system.cpu0.power_state.numTransitions              1                       # Number of power state transitions (Count)
system.cpu0.power_state.pwrStateResidencyTicks::ON   6367600000                       # Cumulative time (in ticks) in various power states (Tick)
system.cpu0.power_state.pwrStateResidencyTicks::OFF      3586000                       # Cumulative time (in ticks) in various power states (Tick)
system.cpu0.thread_0.numInsts                       0                       # Number of Instructions committed (Count)
system.cpu0.thread_0.numOps                         0                       # Number of Ops committed (Count)
system.cpu0.thread_0.numMemRefs                     0                       # Number of Memory References (Count)
system.cpu0.workload.numSyscalls                    0                       # Number of system calls (Count)
system.cpu1.numCycles                               0                       # Number of cpu cycles simulated (Cycle)
system.cpu1.cpi                                   nan                       # CPI: cycles per instruction (core level) ((Cycle/Count))
system.cpu1.ipc                                   nan                       # IPC: instructions per cycle (core level) ((Count/Cycle))
system.cpu1.numWorkItemsStarted                     0                       # Number of work items this cpu started (Count)
system.cpu1.numWorkItemsCompleted                   0                       # Number of work items this cpu completed (Count)
system.cpu1.commitStats0.numOps                     0                       # Number of ops (including micro ops) committed (thread level) (Count)
system.cpu1.commitStats0.numInstsNotNOP             0                       # Number of instructions committed excluding NOPs or prefetches (Count)
system.cpu1.commitStats0.numOpsNotNOP               0                       # Number of Ops (including micro ops) Simulated (Count)
system.cpu1.commitStats0.cpi                      nan                       # CPI: cycles per instruction (thread level) ((Cycle/Count))
system.cpu1.commitStats0.ipc                      nan                       # IPC: instructions per cycle (thread level) ((Count/Cycle))
system.cpu1.commitStats0.numMemRefs                 0                       # Number of memory references committed (Count)
system.cpu1.commitStats0.numFpInsts                 0                       # Number of float instructions (Count)
system.cpu1.commitStats0.numIntInsts                0                       # Number of integer instructions (Count)
system.cpu1.commitStats0.numLoadInsts               0                       # Number of load instructions (Count)
system.cpu1.commitStats0.numStoreInsts              0                       # Number of store instructions (Count)
system.cpu1.commitStats0.numVecInsts                0                       # Number of vector instructions (Count)
system.cpu1.commitStats0.committedInstType::No_OpClass            0                       # Class of committed instruction. (Count)
system.cpu1.commitStats0.committedInstType::IntAlu            0                       # Class of committed instruction. (Count)
system.cpu1.commitStats0.committedInstType::IntMult            0                       # Class of committed instruction. (Count)
system.cpu1.commitStats0.committedInstType::IntDiv            0                       # Class of committed instruction. (Count)
system.cpu1.commitStats0.committedInstType::FloatAdd            0                       # Class of committed instruction. (Count)
system.cpu1.commitStats0.committedInstType::FloatCmp            0                       # Class of committed instruction. (Count)
system.cpu1.commitStats0.committedInstType::FloatCvt            0                       # Class of committed instruction. (Count)
system.cpu1.commitStats0.committedInstType::FloatMult            0                       # Class of committed instruction. (Count)
system.cpu1.commitStats0.committedInstType::FloatMultAcc            0                       # Class of committed instruction. (Count)
system.cpu1.commitStats0.committedInstType::FloatDiv            0                       # Class of committed instruction. (Count)
system.cpu1.commitStats0.committedInstType::FloatMisc            0                       # Class of committed instruction. (Count)
system.cpu1.commitStats0.committedInstType::FloatSqrt            0                       # Class of committed instruction. (Count)
system.cpu1.commitStats0.committedInstType::SimdAdd            0                       # Class of committed instruction. (Count)
system.cpu1.commitStats0.committedInstType::SimdAddAcc            0                       # Class of committed instruction. (Count)
system.cpu1.commitStats0.committedInstType::SimdAlu            0                       # Class of committed instruction. (Count)
system.cpu1.commitStats0.committedInstType::SimdCmp            0                       # Class of committed instruction. (Count)
system.cpu1.commitStats0.committedInstType::SimdCvt            0                       # Class of committed instruction. (Count)
system.cpu1.commitStats0.committedInstType::SimdMisc            0                       # Class of committed instruction. (Count)
system.cpu1.commitStats0.committedInstType::SimdMult            0                       # Class of committed instruction. (Count)
system.cpu1.commitStats0.committedInstType::SimdMultAcc            0                       # Class of committed instruction. (Count)
system.cpu1.commitStats0.committedInstType::SimdMatMultAcc            0                       # Class of committed instruction. (Count)
system.cpu1.commitStats0.committedInstType::SimdShift            0                       # Class of committed instruction. (Count)
system.cpu1.commitStats0.committedInstType::SimdShiftAcc            0                       # Class of committed instruction. (Count)
system.cpu1.commitStats0.committedInstType::SimdDiv            0                       # Class of committed instruction. (Count)
system.cpu1.commitStats0.committedInstType::SimdSqrt            0                       # Class of committed instruction. (Count)
system.cpu1.commitStats0.committedInstType::SimdFloatAdd            0                       # Class of committed instruction. (Count)
system.cpu1.commitStats0.committedInstType::SimdFloatAlu            0                       # Class of committed instruction. (Count)
system.cpu1.commitStats0.committedInstType::SimdFloatCmp            0                       # Class of committed instruction. (Count)
system.cpu1.commitStats0.committedInstType::SimdFloatCvt            0                       # Class of committed instruction. (Count)
system.cpu1.commitStats0.committedInstType::SimdFloatDiv            0                       # Class of committed instruction. (Count)
system.cpu1.commitStats0.committedInstType::SimdFloatMisc            0                       # Class of committed instruction. (Count)
system.cpu1.commitStats0.committedInstType::SimdFloatMult            0                       # Class of committed instruction. (Count)
system.cpu1.commitStats0.committedInstType::SimdFloatMultAcc            0                       # Class of committed instruction. (Count)
system.cpu1.commitStats0.committedInstType::SimdFloatMatMultAcc            0                       # Class of committed instruction. (Count)
system.cpu1.commitStats0.committedInstType::SimdFloatSqrt            0                       # Class of committed instruction. (Count)
system.cpu1.commitStats0.committedInstType::SimdReduceAdd            0                       # Class of committed instruction. (Count)
system.cpu1.commitStats0.committedInstType::SimdReduceAlu            0                       # Class of committed instruction. (Count)
system.cpu1.commitStats0.committedInstType::SimdReduceCmp            0                       # Class of committed instruction. (Count)
system.cpu1.commitStats0.committedInstType::SimdFloatReduceAdd            0                       # Class of committed instruction. (Count)
system.cpu1.commitStats0.committedInstType::SimdFloatReduceCmp            0                       # Class of committed instruction. (Count)
system.cpu1.commitStats0.committedInstType::SimdAes            0                       # Class of committed instruction. (Count)
system.cpu1.commitStats0.committedInstType::SimdAesMix            0                       # Class of committed instruction. (Count)
system.cpu1.commitStats0.committedInstType::SimdSha1Hash            0                       # Class of committed instruction. (Count)
system.cpu1.commitStats0.committedInstType::SimdSha1Hash2            0                       # Class of committed instruction. (Count)
system.cpu1.commitStats0.committedInstType::SimdSha256Hash            0                       # Class of committed instruction. (Count)
system.cpu1.commitStats0.committedInstType::SimdSha256Hash2            0                       # Class of committed instruction. (Count)
system.cpu1.commitStats0.committedInstType::SimdShaSigma2            0                       # Class of committed instruction. (Count)
system.cpu1.commitStats0.committedInstType::SimdShaSigma3            0                       # Class of committed instruction. (Count)
system.cpu1.commitStats0.committedInstType::SimdPredAlu            0                       # Class of committed instruction. (Count)
system.cpu1.commitStats0.committedInstType::Matrix            0                       # Class of committed instruction. (Count)
system.cpu1.commitStats0.committedInstType::MatrixMov            0                       # Class of committed instruction. (Count)
system.cpu1.commitStats0.committedInstType::MatrixOP            0                       # Class of committed instruction. (Count)
system.cpu1.commitStats0.committedInstType::MemRead            0                       # Class of committed instruction. (Count)
system.cpu1.commitStats0.committedInstType::MemWrite            0                       # Class of committed instruction. (Count)
system.cpu1.commitStats0.committedInstType::FloatMemRead            0                       # Class of committed instruction. (Count)
system.cpu1.commitStats0.committedInstType::FloatMemWrite            0                       # Class of committed instruction. (Count)
system.cpu1.commitStats0.committedInstType::IprAccess            0                       # Class of committed instruction. (Count)
system.cpu1.commitStats0.committedInstType::InstPrefetch            0                       # Class of committed instruction. (Count)
system.cpu1.commitStats0.committedInstType::VectorUnitStrideLoad            0                       # Class of committed instruction. (Count)
system.cpu1.commitStats0.committedInstType::VectorUnitStrideStore            0                       # Class of committed instruction. (Count)
system.cpu1.commitStats0.committedInstType::VectorUnitStrideMaskLoad            0                       # Class of committed instruction. (Count)
system.cpu1.commitStats0.committedInstType::VectorUnitStrideMaskStore            0                       # Class of committed instruction. (Count)
system.cpu1.commitStats0.committedInstType::VectorStridedLoad            0                       # Class of committed instruction. (Count)
system.cpu1.commitStats0.committedInstType::VectorStridedStore            0                       # Class of committed instruction. (Count)
system.cpu1.commitStats0.committedInstType::VectorIndexedLoad            0                       # Class of committed instruction. (Count)
system.cpu1.commitStats0.committedInstType::VectorIndexedStore            0                       # Class of committed instruction. (Count)
system.cpu1.commitStats0.committedInstType::VectorUnitStrideFaultOnlyFirstLoad            0                       # Class of committed instruction. (Count)
system.cpu1.commitStats0.committedInstType::VectorWholeRegisterLoad            0                       # Class of committed instruction. (Count)
system.cpu1.commitStats0.committedInstType::VectorWholeRegisterStore            0                       # Class of committed instruction. (Count)
system.cpu1.commitStats0.committedInstType::VectorIntegerArith            0                       # Class of committed instruction. (Count)
system.cpu1.commitStats0.committedInstType::VectorFloatArith            0                       # Class of committed instruction. (Count)
system.cpu1.commitStats0.committedInstType::VectorFloatConvert            0                       # Class of committed instruction. (Count)
system.cpu1.commitStats0.committedInstType::VectorIntegerReduce            0                       # Class of committed instruction. (Count)
system.cpu1.commitStats0.committedInstType::VectorFloatReduce            0                       # Class of committed instruction. (Count)
system.cpu1.commitStats0.committedInstType::VectorMisc            0                       # Class of committed instruction. (Count)
system.cpu1.commitStats0.committedInstType::VectorIntegerExtension            0                       # Class of committed instruction. (Count)
system.cpu1.commitStats0.committedInstType::VectorConfig            0                       # Class of committed instruction. (Count)
system.cpu1.commitStats0.committedInstType::total            0                       # Class of committed instruction. (Count)
system.cpu1.exec_context.thread_0.numMatAluAccesses            0                       # Number of matrix alu accesses (Count)
system.cpu1.exec_context.thread_0.numCallsReturns            0                       # Number of times a function call or return occured (Count)
system.cpu1.exec_context.thread_0.numMatInsts            0                       # Number of matrix instructions (Count)
system.cpu1.exec_context.thread_0.numIdleCycles            0                       # Number of idle cycles (Cycle)
system.cpu1.exec_context.thread_0.numBusyCycles            0                       # Number of busy cycles (Cycle)
system.cpu1.exec_context.thread_0.notIdleFraction            0                       # Percentage of non-idle cycles (Ratio)
system.cpu1.exec_context.thread_0.idleFraction            1                       # Percentage of idle cycles (Ratio)
system.cpu1.executeStats0.numInsts                  0                       # Number of executed instructions (Count)
system.cpu1.executeStats0.numNop                    0                       # Number of nop insts executed (Count)
system.cpu1.executeStats0.numBranches               0                       # Number of branches executed (Count)
system.cpu1.executeStats0.numLoadInsts              0                       # Number of load instructions executed (Count)
system.cpu1.executeStats0.numStoreInsts             0                       # Number of stores executed (Count)
system.cpu1.executeStats0.instRate                nan                       # Inst execution rate ((Count/Cycle))
system.cpu1.executeStats0.numFpRegWrites            0                       # Number of times the floating registers were written (Count)
system.cpu1.executeStats0.numMemRefs                0                       # Number of memory refs (Count)
system.cpu1.executeStats0.numVecAluAccesses            0                       # Number of vector alu accesses (Count)
system.cpu1.executeStats0.numDiscardedOps            0                       # Number of ops (including micro ops) which were discarded before commit (Count)
system.cpu1.fetchStats0.numInsts                    0                       # Number of instructions fetched (thread level) (Count)
system.cpu1.fetchStats0.numOps                      0                       # Number of ops (including micro ops) fetched (thread level) (Count)
system.cpu1.fetchStats0.fetchRate                 nan                       # Number of inst fetches per cycle ((Count/Cycle))
system.cpu1.fetchStats0.branchRate                nan                       # Number of branch fetches per cycle (Ratio)
system.cpu1.fetchStats0.numFetchSuspends            0                       # Number of times Execute suspended instruction fetching (Count)
system.cpu1.mmu.dtb.readHits                        0                       # read hits (Count)
system.cpu1.mmu.dtb.readMisses                      0                       # read misses (Count)
system.cpu1.mmu.dtb.readAccesses                    0                       # read accesses (Count)
system.cpu1.mmu.dtb.writeHits                       0                       # write hits (Count)
system.cpu1.mmu.dtb.writeMisses                     0                       # write misses (Count)
system.cpu1.mmu.dtb.writeAccesses                   0                       # write accesses (Count)
system.cpu1.mmu.dtb.hits                            0                       # Total TLB (read and write) hits (Count)
system.cpu1.mmu.dtb.misses                          0                       # Total TLB (read and write) misses (Count)
system.cpu1.mmu.dtb.accesses                        0                       # Total TLB (read and write) accesses (Count)
system.cpu1.mmu.dtb.walker.power_state.pwrStateResidencyTicks::UNDEFINED   6371186000                       # Cumulative time (in ticks) in various power states (Tick)
system.cpu1.mmu.itb.readHits                        0                       # read hits (Count)
system.cpu1.mmu.itb.readMisses                      0                       # read misses (Count)
system.cpu1.mmu.itb.readAccesses                    0                       # read accesses (Count)
system.cpu1.mmu.itb.writeHits                       0                       # write hits (Count)
system.cpu1.mmu.itb.writeMisses                     0                       # write misses (Count)
system.cpu1.mmu.itb.writeAccesses                   0                       # write accesses (Count)
system.cpu1.mmu.itb.hits                            0                       # Total TLB (read and write) hits (Count)
system.cpu1.mmu.itb.misses                          0                       # Total TLB (read and write) misses (Count)
system.cpu1.mmu.itb.accesses                        0                       # Total TLB (read and write) accesses (Count)
system.cpu1.mmu.itb.walker.power_state.pwrStateResidencyTicks::UNDEFINED   6371186000                       # Cumulative time (in ticks) in various power states (Tick)
system.cpu1.power_state.numTransitions              1                       # Number of power state transitions (Count)
system.cpu1.power_state.pwrStateResidencyTicks::ON   6367600000                       # Cumulative time (in ticks) in various power states (Tick)
system.cpu1.power_state.pwrStateResidencyTicks::OFF      3586000                       # Cumulative time (in ticks) in various power states (Tick)
system.cpu1.thread_0.numInsts                       0                       # Number of Instructions committed (Count)
system.cpu1.thread_0.numOps                         0                       # Number of Ops committed (Count)
system.cpu1.thread_0.numMemRefs                     0                       # Number of Memory References (Count)
system.cpu10.numCycles                              0                       # Number of cpu cycles simulated (Cycle)
system.cpu10.cpi                                  nan                       # CPI: cycles per instruction (core level) ((Cycle/Count))
system.cpu10.ipc                                  nan                       # IPC: instructions per cycle (core level) ((Count/Cycle))
system.cpu10.numWorkItemsStarted                    0                       # Number of work items this cpu started (Count)
system.cpu10.numWorkItemsCompleted                  0                       # Number of work items this cpu completed (Count)
system.cpu10.commitStats0.numOps                    0                       # Number of ops (including micro ops) committed (thread level) (Count)
system.cpu10.commitStats0.numInstsNotNOP            0                       # Number of instructions committed excluding NOPs or prefetches (Count)
system.cpu10.commitStats0.numOpsNotNOP              0                       # Number of Ops (including micro ops) Simulated (Count)
system.cpu10.commitStats0.cpi                     nan                       # CPI: cycles per instruction (thread level) ((Cycle/Count))
system.cpu10.commitStats0.ipc                     nan                       # IPC: instructions per cycle (thread level) ((Count/Cycle))
system.cpu10.commitStats0.numMemRefs                0                       # Number of memory references committed (Count)
system.cpu10.commitStats0.numFpInsts                0                       # Number of float instructions (Count)
system.cpu10.commitStats0.numIntInsts               0                       # Number of integer instructions (Count)
system.cpu10.commitStats0.numLoadInsts              0                       # Number of load instructions (Count)
system.cpu10.commitStats0.numStoreInsts             0                       # Number of store instructions (Count)
system.cpu10.commitStats0.numVecInsts               0                       # Number of vector instructions (Count)
system.cpu10.commitStats0.committedInstType::No_OpClass            0                       # Class of committed instruction. (Count)
system.cpu10.commitStats0.committedInstType::IntAlu            0                       # Class of committed instruction. (Count)
system.cpu10.commitStats0.committedInstType::IntMult            0                       # Class of committed instruction. (Count)
system.cpu10.commitStats0.committedInstType::IntDiv            0                       # Class of committed instruction. (Count)
system.cpu10.commitStats0.committedInstType::FloatAdd            0                       # Class of committed instruction. (Count)
system.cpu10.commitStats0.committedInstType::FloatCmp            0                       # Class of committed instruction. (Count)
system.cpu10.commitStats0.committedInstType::FloatCvt            0                       # Class of committed instruction. (Count)
system.cpu10.commitStats0.committedInstType::FloatMult            0                       # Class of committed instruction. (Count)
system.cpu10.commitStats0.committedInstType::FloatMultAcc            0                       # Class of committed instruction. (Count)
system.cpu10.commitStats0.committedInstType::FloatDiv            0                       # Class of committed instruction. (Count)
system.cpu10.commitStats0.committedInstType::FloatMisc            0                       # Class of committed instruction. (Count)
system.cpu10.commitStats0.committedInstType::FloatSqrt            0                       # Class of committed instruction. (Count)
system.cpu10.commitStats0.committedInstType::SimdAdd            0                       # Class of committed instruction. (Count)
system.cpu10.commitStats0.committedInstType::SimdAddAcc            0                       # Class of committed instruction. (Count)
system.cpu10.commitStats0.committedInstType::SimdAlu            0                       # Class of committed instruction. (Count)
system.cpu10.commitStats0.committedInstType::SimdCmp            0                       # Class of committed instruction. (Count)
system.cpu10.commitStats0.committedInstType::SimdCvt            0                       # Class of committed instruction. (Count)
system.cpu10.commitStats0.committedInstType::SimdMisc            0                       # Class of committed instruction. (Count)
system.cpu10.commitStats0.committedInstType::SimdMult            0                       # Class of committed instruction. (Count)
system.cpu10.commitStats0.committedInstType::SimdMultAcc            0                       # Class of committed instruction. (Count)
system.cpu10.commitStats0.committedInstType::SimdMatMultAcc            0                       # Class of committed instruction. (Count)
system.cpu10.commitStats0.committedInstType::SimdShift            0                       # Class of committed instruction. (Count)
system.cpu10.commitStats0.committedInstType::SimdShiftAcc            0                       # Class of committed instruction. (Count)
system.cpu10.commitStats0.committedInstType::SimdDiv            0                       # Class of committed instruction. (Count)
system.cpu10.commitStats0.committedInstType::SimdSqrt            0                       # Class of committed instruction. (Count)
system.cpu10.commitStats0.committedInstType::SimdFloatAdd            0                       # Class of committed instruction. (Count)
system.cpu10.commitStats0.committedInstType::SimdFloatAlu            0                       # Class of committed instruction. (Count)
system.cpu10.commitStats0.committedInstType::SimdFloatCmp            0                       # Class of committed instruction. (Count)
system.cpu10.commitStats0.committedInstType::SimdFloatCvt            0                       # Class of committed instruction. (Count)
system.cpu10.commitStats0.committedInstType::SimdFloatDiv            0                       # Class of committed instruction. (Count)
system.cpu10.commitStats0.committedInstType::SimdFloatMisc            0                       # Class of committed instruction. (Count)
system.cpu10.commitStats0.committedInstType::SimdFloatMult            0                       # Class of committed instruction. (Count)
system.cpu10.commitStats0.committedInstType::SimdFloatMultAcc            0                       # Class of committed instruction. (Count)
system.cpu10.commitStats0.committedInstType::SimdFloatMatMultAcc            0                       # Class of committed instruction. (Count)
system.cpu10.commitStats0.committedInstType::SimdFloatSqrt            0                       # Class of committed instruction. (Count)
system.cpu10.commitStats0.committedInstType::SimdReduceAdd            0                       # Class of committed instruction. (Count)
system.cpu10.commitStats0.committedInstType::SimdReduceAlu            0                       # Class of committed instruction. (Count)
system.cpu10.commitStats0.committedInstType::SimdReduceCmp            0                       # Class of committed instruction. (Count)
system.cpu10.commitStats0.committedInstType::SimdFloatReduceAdd            0                       # Class of committed instruction. (Count)
system.cpu10.commitStats0.committedInstType::SimdFloatReduceCmp            0                       # Class of committed instruction. (Count)
system.cpu10.commitStats0.committedInstType::SimdAes            0                       # Class of committed instruction. (Count)
system.cpu10.commitStats0.committedInstType::SimdAesMix            0                       # Class of committed instruction. (Count)
system.cpu10.commitStats0.committedInstType::SimdSha1Hash            0                       # Class of committed instruction. (Count)
system.cpu10.commitStats0.committedInstType::SimdSha1Hash2            0                       # Class of committed instruction. (Count)
system.cpu10.commitStats0.committedInstType::SimdSha256Hash            0                       # Class of committed instruction. (Count)
system.cpu10.commitStats0.committedInstType::SimdSha256Hash2            0                       # Class of committed instruction. (Count)
system.cpu10.commitStats0.committedInstType::SimdShaSigma2            0                       # Class of committed instruction. (Count)
system.cpu10.commitStats0.committedInstType::SimdShaSigma3            0                       # Class of committed instruction. (Count)
system.cpu10.commitStats0.committedInstType::SimdPredAlu            0                       # Class of committed instruction. (Count)
system.cpu10.commitStats0.committedInstType::Matrix            0                       # Class of committed instruction. (Count)
system.cpu10.commitStats0.committedInstType::MatrixMov            0                       # Class of committed instruction. (Count)
system.cpu10.commitStats0.committedInstType::MatrixOP            0                       # Class of committed instruction. (Count)
system.cpu10.commitStats0.committedInstType::MemRead            0                       # Class of committed instruction. (Count)
system.cpu10.commitStats0.committedInstType::MemWrite            0                       # Class of committed instruction. (Count)
system.cpu10.commitStats0.committedInstType::FloatMemRead            0                       # Class of committed instruction. (Count)
system.cpu10.commitStats0.committedInstType::FloatMemWrite            0                       # Class of committed instruction. (Count)
system.cpu10.commitStats0.committedInstType::IprAccess            0                       # Class of committed instruction. (Count)
system.cpu10.commitStats0.committedInstType::InstPrefetch            0                       # Class of committed instruction. (Count)
system.cpu10.commitStats0.committedInstType::VectorUnitStrideLoad            0                       # Class of committed instruction. (Count)
system.cpu10.commitStats0.committedInstType::VectorUnitStrideStore            0                       # Class of committed instruction. (Count)
system.cpu10.commitStats0.committedInstType::VectorUnitStrideMaskLoad            0                       # Class of committed instruction. (Count)
system.cpu10.commitStats0.committedInstType::VectorUnitStrideMaskStore            0                       # Class of committed instruction. (Count)
system.cpu10.commitStats0.committedInstType::VectorStridedLoad            0                       # Class of committed instruction. (Count)
system.cpu10.commitStats0.committedInstType::VectorStridedStore            0                       # Class of committed instruction. (Count)
system.cpu10.commitStats0.committedInstType::VectorIndexedLoad            0                       # Class of committed instruction. (Count)
system.cpu10.commitStats0.committedInstType::VectorIndexedStore            0                       # Class of committed instruction. (Count)
system.cpu10.commitStats0.committedInstType::VectorUnitStrideFaultOnlyFirstLoad            0                       # Class of committed instruction. (Count)
system.cpu10.commitStats0.committedInstType::VectorWholeRegisterLoad            0                       # Class of committed instruction. (Count)
system.cpu10.commitStats0.committedInstType::VectorWholeRegisterStore            0                       # Class of committed instruction. (Count)
system.cpu10.commitStats0.committedInstType::VectorIntegerArith            0                       # Class of committed instruction. (Count)
system.cpu10.commitStats0.committedInstType::VectorFloatArith            0                       # Class of committed instruction. (Count)
system.cpu10.commitStats0.committedInstType::VectorFloatConvert            0                       # Class of committed instruction. (Count)
system.cpu10.commitStats0.committedInstType::VectorIntegerReduce            0                       # Class of committed instruction. (Count)
system.cpu10.commitStats0.committedInstType::VectorFloatReduce            0                       # Class of committed instruction. (Count)
system.cpu10.commitStats0.committedInstType::VectorMisc            0                       # Class of committed instruction. (Count)
system.cpu10.commitStats0.committedInstType::VectorIntegerExtension            0                       # Class of committed instruction. (Count)
system.cpu10.commitStats0.committedInstType::VectorConfig            0                       # Class of committed instruction. (Count)
system.cpu10.commitStats0.committedInstType::total            0                       # Class of committed instruction. (Count)
system.cpu10.exec_context.thread_0.numMatAluAccesses            0                       # Number of matrix alu accesses (Count)
system.cpu10.exec_context.thread_0.numCallsReturns            0                       # Number of times a function call or return occured (Count)
system.cpu10.exec_context.thread_0.numMatInsts            0                       # Number of matrix instructions (Count)
system.cpu10.exec_context.thread_0.numIdleCycles            0                       # Number of idle cycles (Cycle)
system.cpu10.exec_context.thread_0.numBusyCycles            0                       # Number of busy cycles (Cycle)
system.cpu10.exec_context.thread_0.notIdleFraction            0                       # Percentage of non-idle cycles (Ratio)
system.cpu10.exec_context.thread_0.idleFraction            1                       # Percentage of idle cycles (Ratio)
system.cpu10.executeStats0.numInsts                 0                       # Number of executed instructions (Count)
system.cpu10.executeStats0.numNop                   0                       # Number of nop insts executed (Count)
system.cpu10.executeStats0.numBranches              0                       # Number of branches executed (Count)
system.cpu10.executeStats0.numLoadInsts             0                       # Number of load instructions executed (Count)
system.cpu10.executeStats0.numStoreInsts            0                       # Number of stores executed (Count)
system.cpu10.executeStats0.instRate               nan                       # Inst execution rate ((Count/Cycle))
system.cpu10.executeStats0.numFpRegWrites            0                       # Number of times the floating registers were written (Count)
system.cpu10.executeStats0.numMemRefs               0                       # Number of memory refs (Count)
system.cpu10.executeStats0.numVecAluAccesses            0                       # Number of vector alu accesses (Count)
system.cpu10.executeStats0.numDiscardedOps            0                       # Number of ops (including micro ops) which were discarded before commit (Count)
system.cpu10.fetchStats0.numInsts                   0                       # Number of instructions fetched (thread level) (Count)
system.cpu10.fetchStats0.numOps                     0                       # Number of ops (including micro ops) fetched (thread level) (Count)
system.cpu10.fetchStats0.fetchRate                nan                       # Number of inst fetches per cycle ((Count/Cycle))
system.cpu10.fetchStats0.branchRate               nan                       # Number of branch fetches per cycle (Ratio)
system.cpu10.fetchStats0.numFetchSuspends            0                       # Number of times Execute suspended instruction fetching (Count)
system.cpu10.mmu.dtb.readHits                       0                       # read hits (Count)
system.cpu10.mmu.dtb.readMisses                     0                       # read misses (Count)
system.cpu10.mmu.dtb.readAccesses                   0                       # read accesses (Count)
system.cpu10.mmu.dtb.writeHits                      0                       # write hits (Count)
system.cpu10.mmu.dtb.writeMisses                    0                       # write misses (Count)
system.cpu10.mmu.dtb.writeAccesses                  0                       # write accesses (Count)
system.cpu10.mmu.dtb.hits                           0                       # Total TLB (read and write) hits (Count)
system.cpu10.mmu.dtb.misses                         0                       # Total TLB (read and write) misses (Count)
system.cpu10.mmu.dtb.accesses                       0                       # Total TLB (read and write) accesses (Count)
system.cpu10.mmu.dtb.walker.power_state.pwrStateResidencyTicks::UNDEFINED   6371186000                       # Cumulative time (in ticks) in various power states (Tick)
system.cpu10.mmu.itb.readHits                       0                       # read hits (Count)
system.cpu10.mmu.itb.readMisses                     0                       # read misses (Count)
system.cpu10.mmu.itb.readAccesses                   0                       # read accesses (Count)
system.cpu10.mmu.itb.writeHits                      0                       # write hits (Count)
system.cpu10.mmu.itb.writeMisses                    0                       # write misses (Count)
system.cpu10.mmu.itb.writeAccesses                  0                       # write accesses (Count)
system.cpu10.mmu.itb.hits                           0                       # Total TLB (read and write) hits (Count)
system.cpu10.mmu.itb.misses                         0                       # Total TLB (read and write) misses (Count)
system.cpu10.mmu.itb.accesses                       0                       # Total TLB (read and write) accesses (Count)
system.cpu10.mmu.itb.walker.power_state.pwrStateResidencyTicks::UNDEFINED   6371186000                       # Cumulative time (in ticks) in various power states (Tick)
system.cpu10.power_state.numTransitions             1                       # Number of power state transitions (Count)
system.cpu10.power_state.pwrStateResidencyTicks::ON   6367600000                       # Cumulative time (in ticks) in various power states (Tick)
system.cpu10.power_state.pwrStateResidencyTicks::OFF      3586000                       # Cumulative time (in ticks) in various power states (Tick)
system.cpu10.thread_0.numInsts                      0                       # Number of Instructions committed (Count)
system.cpu10.thread_0.numOps                        0                       # Number of Ops committed (Count)
system.cpu10.thread_0.numMemRefs                    0                       # Number of Memory References (Count)
system.cpu11.numCycles                              0                       # Number of cpu cycles simulated (Cycle)
system.cpu11.cpi                                  nan                       # CPI: cycles per instruction (core level) ((Cycle/Count))
system.cpu11.ipc                                  nan                       # IPC: instructions per cycle (core level) ((Count/Cycle))
system.cpu11.numWorkItemsStarted                    0                       # Number of work items this cpu started (Count)
system.cpu11.numWorkItemsCompleted                  0                       # Number of work items this cpu completed (Count)
system.cpu11.commitStats0.numOps                    0                       # Number of ops (including micro ops) committed (thread level) (Count)
system.cpu11.commitStats0.numInstsNotNOP            0                       # Number of instructions committed excluding NOPs or prefetches (Count)
system.cpu11.commitStats0.numOpsNotNOP              0                       # Number of Ops (including micro ops) Simulated (Count)
system.cpu11.commitStats0.cpi                     nan                       # CPI: cycles per instruction (thread level) ((Cycle/Count))
system.cpu11.commitStats0.ipc                     nan                       # IPC: instructions per cycle (thread level) ((Count/Cycle))
system.cpu11.commitStats0.numMemRefs                0                       # Number of memory references committed (Count)
system.cpu11.commitStats0.numFpInsts                0                       # Number of float instructions (Count)
system.cpu11.commitStats0.numIntInsts               0                       # Number of integer instructions (Count)
system.cpu11.commitStats0.numLoadInsts              0                       # Number of load instructions (Count)
system.cpu11.commitStats0.numStoreInsts             0                       # Number of store instructions (Count)
system.cpu11.commitStats0.numVecInsts               0                       # Number of vector instructions (Count)
system.cpu11.commitStats0.committedInstType::No_OpClass            0                       # Class of committed instruction. (Count)
system.cpu11.commitStats0.committedInstType::IntAlu            0                       # Class of committed instruction. (Count)
system.cpu11.commitStats0.committedInstType::IntMult            0                       # Class of committed instruction. (Count)
system.cpu11.commitStats0.committedInstType::IntDiv            0                       # Class of committed instruction. (Count)
system.cpu11.commitStats0.committedInstType::FloatAdd            0                       # Class of committed instruction. (Count)
system.cpu11.commitStats0.committedInstType::FloatCmp            0                       # Class of committed instruction. (Count)
system.cpu11.commitStats0.committedInstType::FloatCvt            0                       # Class of committed instruction. (Count)
system.cpu11.commitStats0.committedInstType::FloatMult            0                       # Class of committed instruction. (Count)
system.cpu11.commitStats0.committedInstType::FloatMultAcc            0                       # Class of committed instruction. (Count)
system.cpu11.commitStats0.committedInstType::FloatDiv            0                       # Class of committed instruction. (Count)
system.cpu11.commitStats0.committedInstType::FloatMisc            0                       # Class of committed instruction. (Count)
system.cpu11.commitStats0.committedInstType::FloatSqrt            0                       # Class of committed instruction. (Count)
system.cpu11.commitStats0.committedInstType::SimdAdd            0                       # Class of committed instruction. (Count)
system.cpu11.commitStats0.committedInstType::SimdAddAcc            0                       # Class of committed instruction. (Count)
system.cpu11.commitStats0.committedInstType::SimdAlu            0                       # Class of committed instruction. (Count)
system.cpu11.commitStats0.committedInstType::SimdCmp            0                       # Class of committed instruction. (Count)
system.cpu11.commitStats0.committedInstType::SimdCvt            0                       # Class of committed instruction. (Count)
system.cpu11.commitStats0.committedInstType::SimdMisc            0                       # Class of committed instruction. (Count)
system.cpu11.commitStats0.committedInstType::SimdMult            0                       # Class of committed instruction. (Count)
system.cpu11.commitStats0.committedInstType::SimdMultAcc            0                       # Class of committed instruction. (Count)
system.cpu11.commitStats0.committedInstType::SimdMatMultAcc            0                       # Class of committed instruction. (Count)
system.cpu11.commitStats0.committedInstType::SimdShift            0                       # Class of committed instruction. (Count)
system.cpu11.commitStats0.committedInstType::SimdShiftAcc            0                       # Class of committed instruction. (Count)
system.cpu11.commitStats0.committedInstType::SimdDiv            0                       # Class of committed instruction. (Count)
system.cpu11.commitStats0.committedInstType::SimdSqrt            0                       # Class of committed instruction. (Count)
system.cpu11.commitStats0.committedInstType::SimdFloatAdd            0                       # Class of committed instruction. (Count)
system.cpu11.commitStats0.committedInstType::SimdFloatAlu            0                       # Class of committed instruction. (Count)
system.cpu11.commitStats0.committedInstType::SimdFloatCmp            0                       # Class of committed instruction. (Count)
system.cpu11.commitStats0.committedInstType::SimdFloatCvt            0                       # Class of committed instruction. (Count)
system.cpu11.commitStats0.committedInstType::SimdFloatDiv            0                       # Class of committed instruction. (Count)
system.cpu11.commitStats0.committedInstType::SimdFloatMisc            0                       # Class of committed instruction. (Count)
system.cpu11.commitStats0.committedInstType::SimdFloatMult            0                       # Class of committed instruction. (Count)
system.cpu11.commitStats0.committedInstType::SimdFloatMultAcc            0                       # Class of committed instruction. (Count)
system.cpu11.commitStats0.committedInstType::SimdFloatMatMultAcc            0                       # Class of committed instruction. (Count)
system.cpu11.commitStats0.committedInstType::SimdFloatSqrt            0                       # Class of committed instruction. (Count)
system.cpu11.commitStats0.committedInstType::SimdReduceAdd            0                       # Class of committed instruction. (Count)
system.cpu11.commitStats0.committedInstType::SimdReduceAlu            0                       # Class of committed instruction. (Count)
system.cpu11.commitStats0.committedInstType::SimdReduceCmp            0                       # Class of committed instruction. (Count)
system.cpu11.commitStats0.committedInstType::SimdFloatReduceAdd            0                       # Class of committed instruction. (Count)
system.cpu11.commitStats0.committedInstType::SimdFloatReduceCmp            0                       # Class of committed instruction. (Count)
system.cpu11.commitStats0.committedInstType::SimdAes            0                       # Class of committed instruction. (Count)
system.cpu11.commitStats0.committedInstType::SimdAesMix            0                       # Class of committed instruction. (Count)
system.cpu11.commitStats0.committedInstType::SimdSha1Hash            0                       # Class of committed instruction. (Count)
system.cpu11.commitStats0.committedInstType::SimdSha1Hash2            0                       # Class of committed instruction. (Count)
system.cpu11.commitStats0.committedInstType::SimdSha256Hash            0                       # Class of committed instruction. (Count)
system.cpu11.commitStats0.committedInstType::SimdSha256Hash2            0                       # Class of committed instruction. (Count)
system.cpu11.commitStats0.committedInstType::SimdShaSigma2            0                       # Class of committed instruction. (Count)
system.cpu11.commitStats0.committedInstType::SimdShaSigma3            0                       # Class of committed instruction. (Count)
system.cpu11.commitStats0.committedInstType::SimdPredAlu            0                       # Class of committed instruction. (Count)
system.cpu11.commitStats0.committedInstType::Matrix            0                       # Class of committed instruction. (Count)
system.cpu11.commitStats0.committedInstType::MatrixMov            0                       # Class of committed instruction. (Count)
system.cpu11.commitStats0.committedInstType::MatrixOP            0                       # Class of committed instruction. (Count)
system.cpu11.commitStats0.committedInstType::MemRead            0                       # Class of committed instruction. (Count)
system.cpu11.commitStats0.committedInstType::MemWrite            0                       # Class of committed instruction. (Count)
system.cpu11.commitStats0.committedInstType::FloatMemRead            0                       # Class of committed instruction. (Count)
system.cpu11.commitStats0.committedInstType::FloatMemWrite            0                       # Class of committed instruction. (Count)
system.cpu11.commitStats0.committedInstType::IprAccess            0                       # Class of committed instruction. (Count)
system.cpu11.commitStats0.committedInstType::InstPrefetch            0                       # Class of committed instruction. (Count)
system.cpu11.commitStats0.committedInstType::VectorUnitStrideLoad            0                       # Class of committed instruction. (Count)
system.cpu11.commitStats0.committedInstType::VectorUnitStrideStore            0                       # Class of committed instruction. (Count)
system.cpu11.commitStats0.committedInstType::VectorUnitStrideMaskLoad            0                       # Class of committed instruction. (Count)
system.cpu11.commitStats0.committedInstType::VectorUnitStrideMaskStore            0                       # Class of committed instruction. (Count)
system.cpu11.commitStats0.committedInstType::VectorStridedLoad            0                       # Class of committed instruction. (Count)
system.cpu11.commitStats0.committedInstType::VectorStridedStore            0                       # Class of committed instruction. (Count)
system.cpu11.commitStats0.committedInstType::VectorIndexedLoad            0                       # Class of committed instruction. (Count)
system.cpu11.commitStats0.committedInstType::VectorIndexedStore            0                       # Class of committed instruction. (Count)
system.cpu11.commitStats0.committedInstType::VectorUnitStrideFaultOnlyFirstLoad            0                       # Class of committed instruction. (Count)
system.cpu11.commitStats0.committedInstType::VectorWholeRegisterLoad            0                       # Class of committed instruction. (Count)
system.cpu11.commitStats0.committedInstType::VectorWholeRegisterStore            0                       # Class of committed instruction. (Count)
system.cpu11.commitStats0.committedInstType::VectorIntegerArith            0                       # Class of committed instruction. (Count)
system.cpu11.commitStats0.committedInstType::VectorFloatArith            0                       # Class of committed instruction. (Count)
system.cpu11.commitStats0.committedInstType::VectorFloatConvert            0                       # Class of committed instruction. (Count)
system.cpu11.commitStats0.committedInstType::VectorIntegerReduce            0                       # Class of committed instruction. (Count)
system.cpu11.commitStats0.committedInstType::VectorFloatReduce            0                       # Class of committed instruction. (Count)
system.cpu11.commitStats0.committedInstType::VectorMisc            0                       # Class of committed instruction. (Count)
system.cpu11.commitStats0.committedInstType::VectorIntegerExtension            0                       # Class of committed instruction. (Count)
system.cpu11.commitStats0.committedInstType::VectorConfig            0                       # Class of committed instruction. (Count)
system.cpu11.commitStats0.committedInstType::total            0                       # Class of committed instruction. (Count)
system.cpu11.exec_context.thread_0.numMatAluAccesses            0                       # Number of matrix alu accesses (Count)
system.cpu11.exec_context.thread_0.numCallsReturns            0                       # Number of times a function call or return occured (Count)
system.cpu11.exec_context.thread_0.numMatInsts            0                       # Number of matrix instructions (Count)
system.cpu11.exec_context.thread_0.numIdleCycles            0                       # Number of idle cycles (Cycle)
system.cpu11.exec_context.thread_0.numBusyCycles            0                       # Number of busy cycles (Cycle)
system.cpu11.exec_context.thread_0.notIdleFraction            0                       # Percentage of non-idle cycles (Ratio)
system.cpu11.exec_context.thread_0.idleFraction            1                       # Percentage of idle cycles (Ratio)
system.cpu11.executeStats0.numInsts                 0                       # Number of executed instructions (Count)
system.cpu11.executeStats0.numNop                   0                       # Number of nop insts executed (Count)
system.cpu11.executeStats0.numBranches              0                       # Number of branches executed (Count)
system.cpu11.executeStats0.numLoadInsts             0                       # Number of load instructions executed (Count)
system.cpu11.executeStats0.numStoreInsts            0                       # Number of stores executed (Count)
system.cpu11.executeStats0.instRate               nan                       # Inst execution rate ((Count/Cycle))
system.cpu11.executeStats0.numFpRegWrites            0                       # Number of times the floating registers were written (Count)
system.cpu11.executeStats0.numMemRefs               0                       # Number of memory refs (Count)
system.cpu11.executeStats0.numVecAluAccesses            0                       # Number of vector alu accesses (Count)
system.cpu11.executeStats0.numDiscardedOps            0                       # Number of ops (including micro ops) which were discarded before commit (Count)
system.cpu11.fetchStats0.numInsts                   0                       # Number of instructions fetched (thread level) (Count)
system.cpu11.fetchStats0.numOps                     0                       # Number of ops (including micro ops) fetched (thread level) (Count)
system.cpu11.fetchStats0.fetchRate                nan                       # Number of inst fetches per cycle ((Count/Cycle))
system.cpu11.fetchStats0.branchRate               nan                       # Number of branch fetches per cycle (Ratio)
system.cpu11.fetchStats0.numFetchSuspends            0                       # Number of times Execute suspended instruction fetching (Count)
system.cpu11.mmu.dtb.readHits                       0                       # read hits (Count)
system.cpu11.mmu.dtb.readMisses                     0                       # read misses (Count)
system.cpu11.mmu.dtb.readAccesses                   0                       # read accesses (Count)
system.cpu11.mmu.dtb.writeHits                      0                       # write hits (Count)
system.cpu11.mmu.dtb.writeMisses                    0                       # write misses (Count)
system.cpu11.mmu.dtb.writeAccesses                  0                       # write accesses (Count)
system.cpu11.mmu.dtb.hits                           0                       # Total TLB (read and write) hits (Count)
system.cpu11.mmu.dtb.misses                         0                       # Total TLB (read and write) misses (Count)
system.cpu11.mmu.dtb.accesses                       0                       # Total TLB (read and write) accesses (Count)
system.cpu11.mmu.dtb.walker.power_state.pwrStateResidencyTicks::UNDEFINED   6371186000                       # Cumulative time (in ticks) in various power states (Tick)
system.cpu11.mmu.itb.readHits                       0                       # read hits (Count)
system.cpu11.mmu.itb.readMisses                     0                       # read misses (Count)
system.cpu11.mmu.itb.readAccesses                   0                       # read accesses (Count)
system.cpu11.mmu.itb.writeHits                      0                       # write hits (Count)
system.cpu11.mmu.itb.writeMisses                    0                       # write misses (Count)
system.cpu11.mmu.itb.writeAccesses                  0                       # write accesses (Count)
system.cpu11.mmu.itb.hits                           0                       # Total TLB (read and write) hits (Count)
system.cpu11.mmu.itb.misses                         0                       # Total TLB (read and write) misses (Count)
system.cpu11.mmu.itb.accesses                       0                       # Total TLB (read and write) accesses (Count)
system.cpu11.mmu.itb.walker.power_state.pwrStateResidencyTicks::UNDEFINED   6371186000                       # Cumulative time (in ticks) in various power states (Tick)
system.cpu11.power_state.numTransitions             1                       # Number of power state transitions (Count)
system.cpu11.power_state.pwrStateResidencyTicks::ON   6367600000                       # Cumulative time (in ticks) in various power states (Tick)
system.cpu11.power_state.pwrStateResidencyTicks::OFF      3586000                       # Cumulative time (in ticks) in various power states (Tick)
system.cpu11.thread_0.numInsts                      0                       # Number of Instructions committed (Count)
system.cpu11.thread_0.numOps                        0                       # Number of Ops committed (Count)
system.cpu11.thread_0.numMemRefs                    0                       # Number of Memory References (Count)
system.cpu12.numCycles                              0                       # Number of cpu cycles simulated (Cycle)
system.cpu12.cpi                                  nan                       # CPI: cycles per instruction (core level) ((Cycle/Count))
system.cpu12.ipc                                  nan                       # IPC: instructions per cycle (core level) ((Count/Cycle))
system.cpu12.numWorkItemsStarted                    0                       # Number of work items this cpu started (Count)
system.cpu12.numWorkItemsCompleted                  0                       # Number of work items this cpu completed (Count)
system.cpu12.commitStats0.numOps                    0                       # Number of ops (including micro ops) committed (thread level) (Count)
system.cpu12.commitStats0.numInstsNotNOP            0                       # Number of instructions committed excluding NOPs or prefetches (Count)
system.cpu12.commitStats0.numOpsNotNOP              0                       # Number of Ops (including micro ops) Simulated (Count)
system.cpu12.commitStats0.cpi                     nan                       # CPI: cycles per instruction (thread level) ((Cycle/Count))
system.cpu12.commitStats0.ipc                     nan                       # IPC: instructions per cycle (thread level) ((Count/Cycle))
system.cpu12.commitStats0.numMemRefs                0                       # Number of memory references committed (Count)
system.cpu12.commitStats0.numFpInsts                0                       # Number of float instructions (Count)
system.cpu12.commitStats0.numIntInsts               0                       # Number of integer instructions (Count)
system.cpu12.commitStats0.numLoadInsts              0                       # Number of load instructions (Count)
system.cpu12.commitStats0.numStoreInsts             0                       # Number of store instructions (Count)
system.cpu12.commitStats0.numVecInsts               0                       # Number of vector instructions (Count)
system.cpu12.commitStats0.committedInstType::No_OpClass            0                       # Class of committed instruction. (Count)
system.cpu12.commitStats0.committedInstType::IntAlu            0                       # Class of committed instruction. (Count)
system.cpu12.commitStats0.committedInstType::IntMult            0                       # Class of committed instruction. (Count)
system.cpu12.commitStats0.committedInstType::IntDiv            0                       # Class of committed instruction. (Count)
system.cpu12.commitStats0.committedInstType::FloatAdd            0                       # Class of committed instruction. (Count)
system.cpu12.commitStats0.committedInstType::FloatCmp            0                       # Class of committed instruction. (Count)
system.cpu12.commitStats0.committedInstType::FloatCvt            0                       # Class of committed instruction. (Count)
system.cpu12.commitStats0.committedInstType::FloatMult            0                       # Class of committed instruction. (Count)
system.cpu12.commitStats0.committedInstType::FloatMultAcc            0                       # Class of committed instruction. (Count)
[...]
system.ruby.network.data_traffic_distribution.n4.n11            0                       (Unspecified)
system.ruby.network.data_traffic_distribution.n4.n12            0                       (Unspecified)
system.ruby.network.data_traffic_distribution.n4.n13            0                       (Unspecified)
system.ruby.network.data_traffic_distribution.n4.n14            0                       (Unspecified)
system.ruby.network.data_traffic_distribution.n4.n15            0                       (Unspecified)
system.ruby.network.data_traffic_distribution.n4.n2            0                       (Unspecified)
system.ruby.network.data_traffic_distribution.n4.n3            0                       (Unspecified)
system.ruby.network.data_traffic_distribution.n4.n4            0                       (Unspecified)
system.ruby.network.data_traffic_distribution.n4.n5            0                       (Unspecified)
system.ruby.network.data_traffic_distribution.n4.n6            0                       (Unspecified)
system.ruby.network.data_traffic_distribution.n4.n7            0                       (Unspecified)
system.ruby.network.data_traffic_distribution.n4.n8            0                       (Unspecified)
system.ruby.network.data_traffic_distribution.n4.n9            0                       (Unspecified)
system.ruby.network.data_traffic_distribution.n5.n0            1                       (Unspecified)
system.ruby.network.data_traffic_distribution.n5.n1            0                       (Unspecified)
system.ruby.network.data_traffic_distribution.n5.n10            0                       (Unspecified)
system.ruby.network.data_traffic_distribution.n5.n11            0                       (Unspecified)
system.ruby.network.data_traffic_distribution.n5.n12            0                       (Unspecified)
system.ruby.network.data_traffic_distribution.n5.n13            0                       (Unspecified)
system.ruby.network.data_traffic_distribution.n5.n14            0                       (Unspecified)
system.ruby.network.data_traffic_distribution.n5.n15            0                       (Unspecified)
system.ruby.network.data_traffic_distribution.n5.n2            0                       (Unspecified)
system.ruby.network.data_traffic_distribution.n5.n3            0                       (Unspecified)
system.ruby.network.data_traffic_distribution.n5.n4            0                       (Unspecified)
system.ruby.network.data_traffic_distribution.n5.n5            0                       (Unspecified)
system.ruby.network.data_traffic_distribution.n5.n6            0                       (Unspecified)
system.ruby.network.data_traffic_distribution.n5.n7            0                       (Unspecified)
system.ruby.network.data_traffic_distribution.n5.n8            0                       (Unspecified)
system.ruby.network.data_traffic_distribution.n5.n9            0                       (Unspecified)
system.ruby.network.data_traffic_distribution.n6.n0            2                       (Unspecified)
system.ruby.network.data_traffic_distribution.n6.n1            0                       (Unspecified)
system.ruby.network.data_traffic_distribution.n6.n10            0                       (Unspecified)
system.ruby.network.data_traffic_distribution.n6.n11            0                       (Unspecified)
system.ruby.network.data_traffic_distribution.n6.n12            0                       (Unspecified)
system.ruby.network.data_traffic_distribution.n6.n13            0                       (Unspecified)
system.ruby.network.data_traffic_distribution.n6.n14            0                       (Unspecified)
system.ruby.network.data_traffic_distribution.n6.n15            0                       (Unspecified)
system.ruby.network.data_traffic_distribution.n6.n2            0                       (Unspecified)
system.ruby.network.data_traffic_distribution.n6.n3            0                       (Unspecified)
system.ruby.network.data_traffic_distribution.n6.n4            0                       (Unspecified)
system.ruby.network.data_traffic_distribution.n6.n5            0                       (Unspecified)
system.ruby.network.data_traffic_distribution.n6.n6            0                       (Unspecified)
system.ruby.network.data_traffic_distribution.n6.n7            0                       (Unspecified)
system.ruby.network.data_traffic_distribution.n6.n8            0                       (Unspecified)
system.ruby.network.data_traffic_distribution.n6.n9            0                       (Unspecified)
system.ruby.network.data_traffic_distribution.n7.n0            2                       (Unspecified)
system.ruby.network.data_traffic_distribution.n7.n1            0                       (Unspecified)
system.ruby.network.data_traffic_distribution.n7.n10            0                       (Unspecified)
system.ruby.network.data_traffic_distribution.n7.n11            0                       (Unspecified)
system.ruby.network.data_traffic_distribution.n7.n12            0                       (Unspecified)
system.ruby.network.data_traffic_distribution.n7.n13            0                       (Unspecified)
system.ruby.network.data_traffic_distribution.n7.n14            0                       (Unspecified)
system.ruby.network.data_traffic_distribution.n7.n15            0                       (Unspecified)
system.ruby.network.data_traffic_distribution.n7.n2            0                       (Unspecified)
system.ruby.network.data_traffic_distribution.n7.n3            0                       (Unspecified)
system.ruby.network.data_traffic_distribution.n7.n4            0                       (Unspecified)
system.ruby.network.data_traffic_distribution.n7.n5            0                       (Unspecified)
system.ruby.network.data_traffic_distribution.n7.n6            0                       (Unspecified)
system.ruby.network.data_traffic_distribution.n7.n7            0                       (Unspecified)
system.ruby.network.data_traffic_distribution.n7.n8            0                       (Unspecified)
system.ruby.network.data_traffic_distribution.n7.n9            0                       (Unspecified)
system.ruby.network.data_traffic_distribution.n8.n0            4                       (Unspecified)
system.ruby.network.data_traffic_distribution.n8.n1            0                       (Unspecified)
system.ruby.network.data_traffic_distribution.n8.n10            0                       (Unspecified)
system.ruby.network.data_traffic_distribution.n8.n11            0                       (Unspecified)
system.ruby.network.data_traffic_distribution.n8.n12            0                       (Unspecified)
system.ruby.network.data_traffic_distribution.n8.n13            0                       (Unspecified)
system.ruby.network.data_traffic_distribution.n8.n14            0                       (Unspecified)
system.ruby.network.data_traffic_distribution.n8.n15            0                       (Unspecified)
system.ruby.network.data_traffic_distribution.n8.n2            0                       (Unspecified)
system.ruby.network.data_traffic_distribution.n8.n3            0                       (Unspecified)
system.ruby.network.data_traffic_distribution.n8.n4            0                       (Unspecified)
system.ruby.network.data_traffic_distribution.n8.n5            0                       (Unspecified)
system.ruby.network.data_traffic_distribution.n8.n6            0                       (Unspecified)
system.ruby.network.data_traffic_distribution.n8.n7            0                       (Unspecified)
system.ruby.network.data_traffic_distribution.n8.n8            0                       (Unspecified)
system.ruby.network.data_traffic_distribution.n8.n9            0                       (Unspecified)
system.ruby.network.data_traffic_distribution.n9.n0            4                       (Unspecified)
system.ruby.network.data_traffic_distribution.n9.n1            0                       (Unspecified)
system.ruby.network.data_traffic_distribution.n9.n10            0                       (Unspecified)
system.ruby.network.data_traffic_distribution.n9.n11            0                       (Unspecified)
system.ruby.network.data_traffic_distribution.n9.n12            0                       (Unspecified)
system.ruby.network.data_traffic_distribution.n9.n13            0                       (Unspecified)
system.ruby.network.data_traffic_distribution.n9.n14            0                       (Unspecified)
system.ruby.network.data_traffic_distribution.n9.n15            0                       (Unspecified)
system.ruby.network.data_traffic_distribution.n9.n2            0                       (Unspecified)
system.ruby.network.data_traffic_distribution.n9.n3            0                       (Unspecified)
system.ruby.network.data_traffic_distribution.n9.n4            0                       (Unspecified)
system.ruby.network.data_traffic_distribution.n9.n5            0                       (Unspecified)
system.ruby.network.data_traffic_distribution.n9.n6            0                       (Unspecified)
system.ruby.network.data_traffic_distribution.n9.n7            0                       (Unspecified)
system.ruby.network.data_traffic_distribution.n9.n8            0                       (Unspecified)
system.ruby.network.data_traffic_distribution.n9.n9            0                       (Unspecified)
system.ruby.network.ext_in_link_utilization          234                       (Unspecified)
system.ruby.network.ext_out_link_utilization          234                       (Unspecified)
system.ruby.network.flit_network_latency |           0                       |           0                       |      189500                       |           0                       |     1162000                       (Unspecified)
system.ruby.network.flit_queueing_latency |           0                       |           0                       |       39000                       |           0                       |       97500                       (Unspecified)
system.ruby.network.flits_injected       |           0      0.00%      0.00% |           0      0.00%      0.00% |          39     16.67%     16.67% |           0      0.00%     16.67% |         195     83.33%    100.00% (Unspecified)
system.ruby.network.flits_injected::total          234                       (Unspecified)
system.ruby.network.flits_received       |           0      0.00%      0.00% |           0      0.00%      0.00% |          39     16.67%     16.67% |           0      0.00%     16.67% |         195     83.33%    100.00% (Unspecified)
system.ruby.network.flits_received::total          234                       (Unspecified)
system.ruby.network.int_link_utilization          786                       (Unspecified)
system.ruby.network.packet_network_latency |           0                       |           0                       |      189500                       |           0                       |      287000                       (Unspecified)
system.ruby.network.packet_queueing_latency |           0                       |           0                       |       39000                       |           0                       |       19500                       (Unspecified)
system.ruby.network.packets_injected     |           0      0.00%      0.00% |           0      0.00%      0.00% |          39     50.00%     50.00% |           0      0.00%     50.00% |          39     50.00%    100.00% (Unspecified)
system.ruby.network.packets_injected::total           78                       (Unspecified)
system.ruby.network.packets_received     |           0      0.00%      0.00% |           0      0.00%      0.00% |          39     50.00%     50.00% |           0      0.00%     50.00% |          39     50.00%    100.00% (Unspecified)
system.ruby.network.packets_received::total           78                       (Unspecified)
system.ruby.network.routers00.buffer_reads          234                       (Unspecified)
system.ruby.network.routers00.buffer_writes          234                       (Unspecified)
system.ruby.network.routers00.crossbar_activity          234                       (Unspecified)
system.ruby.network.routers00.sw_input_arbiter_activity          234                       (Unspecified)
system.ruby.network.routers00.sw_output_arbiter_activity          234                       (Unspecified)
system.ruby.network.routers01.buffer_reads           49                       (Unspecified)
system.ruby.network.routers01.buffer_writes           49                       (Unspecified)
system.ruby.network.routers01.crossbar_activity           49                       (Unspecified)
system.ruby.network.routers01.sw_input_arbiter_activity           49                       (Unspecified)
system.ruby.network.routers01.sw_output_arbiter_activity           49                       (Unspecified)
system.ruby.network.routers02.buffer_reads           35                       (Unspecified)
system.ruby.network.routers02.buffer_writes           35                       (Unspecified)
system.ruby.network.routers02.crossbar_activity           35                       (Unspecified)
system.ruby.network.routers02.sw_input_arbiter_activity           35                       (Unspecified)
system.ruby.network.routers02.sw_output_arbiter_activity           35                       (Unspecified)
system.ruby.network.routers03.buffer_reads           15                       (Unspecified)
system.ruby.network.routers03.buffer_writes           15                       (Unspecified)
system.ruby.network.routers03.crossbar_activity           15                       (Unspecified)
system.ruby.network.routers03.sw_input_arbiter_activity           15                       (Unspecified)
system.ruby.network.routers03.sw_output_arbiter_activity           15                       (Unspecified)
system.ruby.network.routers04.buffer_reads          179                       (Unspecified)
system.ruby.network.routers04.buffer_writes          179                       (Unspecified)
system.ruby.network.routers04.crossbar_activity          179                       (Unspecified)
system.ruby.network.routers04.sw_input_arbiter_activity          179                       (Unspecified)
system.ruby.network.routers04.sw_output_arbiter_activity          179                       (Unspecified)
system.ruby.network.routers05.buffer_reads           33                       (Unspecified)
system.ruby.network.routers05.buffer_writes           33                       (Unspecified)
system.ruby.network.routers05.crossbar_activity           33                       (Unspecified)
system.ruby.network.routers05.sw_input_arbiter_activity           33                       (Unspecified)
system.ruby.network.routers05.sw_output_arbiter_activity           33                       (Unspecified)
system.ruby.network.routers06.buffer_reads           28                       (Unspecified)
system.ruby.network.routers06.buffer_writes           28                       (Unspecified)
system.ruby.network.routers06.crossbar_activity           28                       (Unspecified)
system.ruby.network.routers06.sw_input_arbiter_activity           28                       (Unspecified)
system.ruby.network.routers06.sw_output_arbiter_activity           28                       (Unspecified)
system.ruby.network.routers07.buffer_reads           19                       (Unspecified)
system.ruby.network.routers07.buffer_writes           19                       (Unspecified)
system.ruby.network.routers07.crossbar_activity           19                       (Unspecified)
system.ruby.network.routers07.sw_input_arbiter_activity           19                       (Unspecified)
system.ruby.network.routers07.sw_output_arbiter_activity           19                       (Unspecified)
system.ruby.network.routers08.buffer_reads          142                       (Unspecified)
system.ruby.network.routers08.buffer_writes          142                       (Unspecified)
system.ruby.network.routers08.crossbar_activity          142                       (Unspecified)
system.ruby.network.routers08.sw_input_arbiter_activity          142                       (Unspecified)
system.ruby.network.routers08.sw_output_arbiter_activity          142                       (Unspecified)
system.ruby.network.routers09.buffer_reads           67                       (Unspecified)
system.ruby.network.routers09.buffer_writes           67                       (Unspecified)
system.ruby.network.routers09.crossbar_activity           67                       (Unspecified)
system.ruby.network.routers09.sw_input_arbiter_activity           67                       (Unspecified)
system.ruby.network.routers09.sw_output_arbiter_activity           67                       (Unspecified)
system.ruby.network.routers10.buffer_reads           46                       (Unspecified)
system.ruby.network.routers10.buffer_writes           46                       (Unspecified)
system.ruby.network.routers10.crossbar_activity           46                       (Unspecified)
system.ruby.network.routers10.sw_input_arbiter_activity           46                       (Unspecified)
system.ruby.network.routers10.sw_output_arbiter_activity           46                       (Unspecified)
system.ruby.network.routers11.buffer_reads           32                       (Unspecified)
system.ruby.network.routers11.buffer_writes           32                       (Unspecified)
system.ruby.network.routers11.crossbar_activity           32                       (Unspecified)
system.ruby.network.routers11.sw_input_arbiter_activity           32                       (Unspecified)
system.ruby.network.routers11.sw_output_arbiter_activity           32                       (Unspecified)
system.ruby.network.routers12.buffer_reads           58                       (Unspecified)
system.ruby.network.routers12.buffer_writes           58                       (Unspecified)
system.ruby.network.routers12.crossbar_activity           58                       (Unspecified)
system.ruby.network.routers12.sw_input_arbiter_activity           58                       (Unspecified)
system.ruby.network.routers12.sw_output_arbiter_activity           58                       (Unspecified)
system.ruby.network.routers13.buffer_reads           43                       (Unspecified)
system.ruby.network.routers13.buffer_writes           43                       (Unspecified)
system.ruby.network.routers13.crossbar_activity           43                       (Unspecified)
system.ruby.network.routers13.sw_input_arbiter_activity           43                       (Unspecified)
system.ruby.network.routers13.sw_output_arbiter_activity           43                       (Unspecified)
system.ruby.network.routers14.buffer_reads           28                       (Unspecified)
system.ruby.network.routers14.buffer_writes           28                       (Unspecified)
system.ruby.network.routers14.crossbar_activity           28                       (Unspecified)
system.ruby.network.routers14.sw_input_arbiter_activity           28                       (Unspecified)
system.ruby.network.routers14.sw_output_arbiter_activity           28                       (Unspecified)
system.ruby.network.routers15.buffer_reads           12                       (Unspecified)
system.ruby.network.routers15.buffer_writes           12                       (Unspecified)
system.ruby.network.routers15.crossbar_activity           12                       (Unspecified)
system.ruby.network.routers15.sw_input_arbiter_activity           12                       (Unspecified)
system.ruby.network.routers15.sw_output_arbiter_activity           12                       (Unspecified)

---------- End Simulation Statistics   ----------
